*HEADING
CalculiX Dynamic Job: test_static
*INCLUDE, INPUT=test_static_mesh.inp

*MATERIAL, NAME=MAT_PROP_1
*ELASTIC
210000.0, 0.3
*DENSITY
7.85e-09

*SHELL SECTION, ELSET=ELSET_PROP_1, MATERIAL=MAT_PROP_1
2.0

*STEP
*STATIC
*BOUNDARY
1, 1, 1, 0.00000000
1, 2, 2, 0.00000000
1, 3, 3, 0.00000000
4, 1, 1, 0.00000000
4, 2, 2, 0.00000000
4, 3, 3, 0.00000000
7, 1, 1, 0.00000000
7, 2, 2, 0.00000000
7, 3, 3, 0.00000000
*CLOAD
3, 3, -100.00000000
6, 3, -100.00000000
9, 3, -100.00000000
*NODE FILE
U
*EL FILE
S
*END STEP
