*HEADING
CalculiX Dynamic Job: test_modal
*INCLUDE, INPUT=test_modal_mesh.inp

*MATERIAL, NAME=MAT_PROP_1
*ELASTIC
210000.0, 0.3
*DENSITY
7.85e-09

*SHELL SECTION, ELSET=ELSET_PROP_1, MATERIAL=MAT_PROP_1
2.0

*STEP
*FREQUENCY
5
*NODE FILE
U
*END STEP
