*KEYWORD
$# LS-DYNA Keyword file generated by WHTModeller: Shell_Beaded_Tray
*MAT_ELASTIC
$#   mid       rho         e        pr
         17.8500e-092.1000e+05    0.3000
*SECTION_SHELL
$#   sid    elform      shrf       nip     propt   qr/irid     icomp
         1        16     0.833         2         0         0         0
    0.6000    0.6000    0.6000    0.6000
*PART
Part_1
         1         1         1
*NODE
$#   nid               x               y               z
         1   -900.00000000   -600.00000000      0.00000000
         2    900.00000000   -600.00000000      0.00000000
         3    900.00000000    600.00000000      0.00000000
         4   -900.00000000    600.00000000      0.00000000
         5   -916.32076804   -616.32076804     35.00000000
         6    916.32076804   -616.32076804     35.00000000
         7    916.32076804    616.32076804     35.00000000
         8   -916.32076804    616.32076804     35.00000000
         9   -916.32076804   -616.32076804     47.00000000
        10    916.32076804   -616.32076804     47.00000000
        11    916.32076804    616.32076804     47.00000000
        12   -916.32076804    616.32076804     47.00000000
        13   -911.32076804   -611.32076804     47.00000000
        14    911.32076804   -611.32076804     47.00000000
        15    911.32076804    611.32076804     47.00000000
        16   -911.32076804    611.32076804     47.00000000
        17   -911.32076804   -611.32076804     37.00000000
        18    911.32076804   -611.32076804     37.00000000
        19    911.32076804    611.32076804     37.00000000
        20   -911.32076804    611.32076804     37.00000000
$ ... 2610 like lines cut
*ELEMENT_SHELL
$#   eid     pid      n1      n2      n3      n4
       961         1         1        25       917       170
       962         1       170       917       918       169
       963         1       169       918       919       168
       964         1       168       919       920       167
       965         1       167       920       921       166
       966         1       166       921       922       165
       967         1       165       922       923       164
       968         1       164       923       924       163
       969         1       163       924       925       162
       970         1       162       925       926       161
       971         1       161       926       927       160
       972         1       160       927       928       159
       973         1       159       928       929       158
       974         1       158       929       930       157
       975         1       157       930       931       156
       976         1       156       931       932       155
       977         1       155       932       933       154
       978         1       154       933       934       153
       979         1       153       934       935       152
       980         1       152       935       936       151
$ ... 2350 like lines cut
*END
