*KEYWORD
*MAT_ELASTIC
         17.8000e-092.1000e+05    0.3000
*SECTION_SHELL
         1         2    0.8330         5
    1.7000    1.7000    1.7000    1.7000
*PART
TrayPart
         1         1         1
*NODE
       1        0.000000        0.000000        0.000000
       2      100.000000        0.000000        0.000000
       3      100.000000      100.000000        0.000000
       4        0.000000      100.000000        0.000000
       5        0.000000        0.000000        5.000000
       6      100.000000        0.000000        5.000000
       7      100.000000        0.000000        5.000000
       8      100.000000      100.000000        5.000000
       9      100.000000      100.000000        5.000000
      10        0.000000      100.000000        5.000000
      11        0.000000      100.000000        5.000000
      12        0.000000        0.000000        5.000000
      13       20.000000        0.000000        0.000000
      14       40.000000        0.000000        0.000000
      15       60.000000        0.000000        0.000000
      16       80.000000        0.000000        0.000000
      17      100.000000       20.000000        0.000000
      18      100.000000       40.000000        0.000000
      19      100.000000       60.000000        0.000000
      20      100.000000       80.000000        0.000000
$ ... 64 like lines cut
*ELEMENT_SHELL
      70       1       1      13      53      28
      71       1      28      53      54      27
      72       1      27      54      55      26
      73       1      26      55      56      25
      74       1      25      56      24       4
      75       1      13      14      57      53
      76       1      53      57      58      54
      77       1      54      58      59      55
      78       1      55      59      60      56
      79       1      56      60      23      24
      80       1      14      15      61      57
      81       1      57      61      62      58
      82       1      58      62      63      59
      83       1      59      63      64      60
      84       1      60      64      22      23
      85       1      15      16      65      61
      86       1      61      65      66      62
      87       1      62      66      67      63
      88       1      63      67      68      64
      89       1      64      68      21      22
$ ... 45 like lines cut
*SET_NODE_LIST
         1
         5         6         7         8         9        10        11        12
        31        32        33        34        37        38        39        40
        43        44        45        46        49        50        51        52
*BOUNDARY_PRESCRIBED_MOTION_SET
         1         3         1         1 9806.6500
*DEFINE_CURVE
         1
            0.000000            0.000000
            0.100000            1.000000
*CONTROL_TERMINATION
    0.0100
*DATABASE_BINARY_D3PLOT
    0.0010
*END
