#RADIOSS STARTER
/BEGIN
challenge                                                             
      2025         0
                  Mg                  mm                   s
                  Mg                  mm                   s
/MAT/ELAST/1
Steel
#              RHO_I
    7.8000000000e-09                   0
#                  E                  nu
        210000.00000             0.30000
/PROP/SHELL/1
sheet_1.7
        24
                                                                                
         5                  1.7000000000                             1         1
/PART/1
TrayPart
         1         1
/NODE
         1        0.0000000000        0.0000000000        0.0000000000
         2      100.0000000000        0.0000000000        0.0000000000
         3      100.0000000000      100.0000000000        0.0000000000
         4        0.0000000000      100.0000000000        0.0000000000
         5        0.0000000000        0.0000000000        5.0000000000
         6      100.0000000000        0.0000000000        5.0000000000
         7      100.0000000000        0.0000000000        5.0000000000
         8      100.0000000000      100.0000000000        5.0000000000
         9      100.0000000000      100.0000000000        5.0000000000
        10        0.0000000000      100.0000000000        5.0000000000
        11        0.0000000000      100.0000000000        5.0000000000
        12        0.0000000000        0.0000000000        5.0000000000
        13       10.0000000000        0.0000000000        0.0000000000
        14       20.0000000000        0.0000000000        0.0000000000
        15       30.0000000000        0.0000000000        0.0000000000
        16       40.0000000000        0.0000000000        0.0000000000
        17       50.0000000000        0.0000000000        0.0000000000
        18       60.0000000000        0.0000000000        0.0000000000
        19       70.0000000000        0.0000000000        0.0000000000
        20       80.0000000000        0.0000000000        0.0000000000
# ... 189 like lines cut
/SHELL/1
       110         1        13        93        48
       111        48        93        94        47
       112        47        94        95        46
       113        46        95        96        45
       114        45        96        97        44
       115        44        97        98        43
       116        43        98        99        42
       117        42        99       100        41
       118        41       100       101        40
       119        40       101        39         4
       120        13        14       102        93
       121        93       102       103        94
       122        94       103       104        95
       123        95       104       105        96
       124        96       105       106        97
       125        97       106       107        98
       126        98       107       108        99
       127        99       108       109       100
       128       100       109       110       101
       129       101       110        38        39
# ... 160 like lines cut
/SET/NODE/1
RimNodes
         5         6         7         8         9        10        11        12
        51        52        53        54        55        56        57        58
        59        62        63        64        65        66        67        68
        69        70        73        74        75        76        77        78
        79        80        81        84        85        86        87        88
        89        90        91        92
/FUNCT/1
SineWave
        0.0000000000        0.0000000000
        0.1000000000        1.0000000000
/IMPACC/1
BaseAccel
         3         1         1    98066.5000000000
/END
