*KEYWORD
*MAT_ELASTIC
1, 7.8e-09, 210000.0, 0.3
*SECTION_SHELL
1, 2, 0.833, 5
1.7, 1.7, 1.7, 1.7
*PART
Part1, 1, 1
*NODE
1, 0.0, 0.0, 0.0
2, 10.0, 0.0, 0.0
3, 10.0, 10.0, 0.0
4, 0.0, 10.0, 0.0
*ELEMENT_SHELL
1, 1, 1, 2, 3, 4
*CONTROL_TERMINATION
0.01
*DATABASE_BINARY_D3PLOT
0.001
*END
