#RADIOSS STARTER
/BEGIN
final_test                                                            
      2025         0
                  Mg                  mm                   s
                  Mg                  mm                   s
/MAT/LAW1/1
Steel                                                                 
#                RHO                   E                  NU
  7.800000000000e-09  2.100000000000e+05  3.000000000000e-01
                   0
/PROP/SHELL/1
TrayProp                                                              
#  N_integ              Thick              Ashear
         5        2.0000000000        0.8333333333
#    Ithick      Iplas
         1         0
#                                                                       Ipos
                                                                               0
/PART/1
TrayPart                                                              
         1         1
/NODE
         1        0.0000000000        0.0000000000        0.0000000000
         2      300.0000000000        0.0000000000        0.0000000000
         3      300.0000000000      300.0000000000        0.0000000000
         4        0.0000000000      300.0000000000        0.0000000000
         5        0.0000000000        0.0000000000        5.0000000000
         6      300.0000000000        0.0000000000        5.0000000000
         7      300.0000000000        0.0000000000        5.0000000000
         8      300.0000000000      300.0000000000        5.0000000000
         9      300.0000000000      300.0000000000        5.0000000000
        10        0.0000000000      300.0000000000        5.0000000000
        11        0.0000000000      300.0000000000        5.0000000000
        12        0.0000000000        0.0000000000        5.0000000000
        13       50.0000000000        0.0000000000        0.0000000000
        14      100.0000000000        0.0000000000        0.0000000000
        15      150.0000000000        0.0000000000        0.0000000000
        16      200.0000000000        0.0000000000        0.0000000000
        17      250.0000000000        0.0000000000        0.0000000000
        18      300.0000000000       50.0000000000        0.0000000000
        19      300.0000000000      100.0000000000        0.0000000000
        20      300.0000000000      150.0000000000        0.0000000000
# ... 85 like lines cut
/SHELL/1
        78         1        13        61        32
        79        32        61        62        31
        80        31        62        63        30
        81        30        63        64        29
        82        29        64        65        28
        83        28        65        27         4
        84        13        14        66        61
        85        61        66        67        62
        86        62        67        68        63
        87        63        68        69        64
        88        64        69        70        65
        89        65        70        26        27
        90        14        15        71        66
        91        66        71        72        67
        92        67        72        73        68
        93        68        73        74        69
        94        69        74        75        70
        95        70        75        25        26
        96        15        16        76        71
        97        71        76        77        72
# ... 64 like lines cut
/SET/NODE/1
RimNodes                                                              
         5         6         7         8         9        10        11        12
        35        36        37        38        39        42        43        44
        45        46        49        50        51        52        53        56
        57        58        59        60
/FUNCT/1
SineWave                                                              
        0.0000000000        0.0000000000
        0.0025000000        1.0000000000
        0.0050000000        0.0000000000
        0.0075000000       -1.0000000000
        0.0100000000        0.0000000000
/IMPACC/1
BaseAccel                                                             
         3         1         1    98066.5000000000
/END
