*KEYWORD
$# Generated by WHTModeller: WHT
*MAT_ELASTIC
$#   mid,      rho,        e,       pr
1,7.8500e-09,2.1000e+05,0.3000
*SECTION_SHELL
$#   sid,   elform,     shrf,      nip,    propt,  qr/irid,    icomp
1,16,0.833,2,0,0,0
1.0000,1.0000,1.0000,1.0000
*PART
Tray_Component
$#   pid,    sid,    mid
1,1,1
*NODE
$#   nid,              x,              y,              z
1,0.00000000,0.00000000,10.00000000
2,1800.00000000,0.00000000,10.00000000
3,1800.00000000,1200.00000000,10.00000000
4,0.00000000,1200.00000000,10.00000000
5,-16.32076804,-16.32076804,35.00000000
6,1816.32076804,-16.32076804,35.00000000
7,1816.32076804,1216.32076804,35.00000000
8,-16.32076804,1216.32076804,35.00000000
9,-16.32076804,-16.32076804,47.00000000
10,1816.32076804,-16.32076804,47.00000000
11,1816.32076804,1216.32076804,47.00000000
12,-16.32076804,1216.32076804,47.00000000
13,-11.32076804,-11.32076804,47.00000000
14,1811.32076804,-11.32076804,47.00000000
15,1811.32076804,1211.32076804,47.00000000
16,-11.32076804,1211.32076804,47.00000000
17,-11.32076804,-11.32076804,37.00000000
18,1811.32076804,-11.32076804,37.00000000
19,1811.32076804,1211.32076804,37.00000000
20,-11.32076804,1211.32076804,37.00000000
$ ... 2610 like lines cut
*ELEMENT_SHELL
$#   eid,    pid,     n1,     n2,     n3,     n4
1,1,1,25,917,170
2,1,170,917,918,169
3,1,169,918,919,168
4,1,168,919,920,167
5,1,167,920,921,166
6,1,166,921,922,165
7,1,165,922,923,164
8,1,164,923,924,163
9,1,163,924,925,162
10,1,162,925,926,161
11,1,161,926,927,160
12,1,160,927,928,159
13,1,159,928,929,158
14,1,158,929,930,157
15,1,157,930,931,156
16,1,156,931,932,155
17,1,155,932,933,154
18,1,154,933,934,153
19,1,153,934,935,152
20,1,152,935,936,151
$ ... 2350 like lines cut
*END
