*HEADING
CalculiX Dynamic Job: ccx_iter016_Modal_Analysis
*INCLUDE, INPUT=ccx_iter016_Modal_Analysis_mesh.inp

*MATERIAL, NAME=MAT_PROP_1
*ELASTIC
210000.0, 0.3
*DENSITY
7.85e-09

*SHELL SECTION, ELSET=ELSET_PROP_1, MATERIAL=MAT_PROP_1
0.6

*STEP
*FREQUENCY
20
*NODE FILE
U
*END STEP
