*HEADING
CalculiX Dynamic Job: ccx_lifting_c3
*INCLUDE, INPUT=ccx_lifting_c3_mesh.inp

*MATERIAL, NAME=MAT_PROP_1
*ELASTIC
200000.0, 0.29
*DENSITY
7.6e-09

*SHELL SECTION, ELSET=ELSET_PROP_1, MATERIAL=MAT_PROP_1
0.5

*STEP
*STATIC
*BOUNDARY
1, 1, 1, 0.00000000
1, 2, 2, 0.00000000
1, 3, 3, 0.00000000
9, 1, 1, 0.00000000
9, 2, 2, 0.00000000
9, 3, 3, 0.00000000
10, 1, 1, 0.00000000
10, 2, 2, 0.00000000
10, 3, 3, 0.00000000
195, 1, 1, 0.00000000
195, 2, 2, 0.00000000
195, 3, 3, 0.00000000
196, 1, 1, 0.00000000
196, 2, 2, 0.00000000
196, 3, 3, 0.00000000
385, 1, 1, 0.00000000
385, 2, 2, 0.00000000
385, 3, 3, 0.00000000
397, 1, 1, 0.00000000
397, 2, 2, 0.00000000
** ... 106 like lines cut
*CLOAD
3, 3, 142.85714286
101, 3, 142.85714286
102, 3, 142.85714286
103, 3, 142.85714286
104, 3, 142.85714286
391, 3, 142.85714286
2501, 3, 142.85714286
2502, 3, 142.85714286
2555, 3, 142.85714286
2556, 3, 142.85714286
2833, 3, 142.85714286
2836, 3, 142.85714286
2839, 3, 142.85714286
2842, 3, 142.85714286
*NODE PRINT, NSET=Nall
U
*NODE FILE
U
*EL FILE
S
*END STEP
