*HEADING
CalculiX Dynamic Job: ccx_lifting_c0
*INCLUDE, INPUT=ccx_lifting_c0_mesh.inp

*MATERIAL, NAME=MAT_PROP_1
*ELASTIC
200000.0, 0.29
*DENSITY
7.6e-09

*SHELL SECTION, ELSET=ELSET_PROP_1, MATERIAL=MAT_PROP_1
0.5

*STEP
*STATIC
*BOUNDARY
2, 1, 1, 0.00000000
2, 2, 2, 0.00000000
2, 3, 3, 0.00000000
47, 1, 1, 0.00000000
47, 2, 2, 0.00000000
47, 3, 3, 0.00000000
48, 1, 1, 0.00000000
48, 2, 2, 0.00000000
48, 3, 3, 0.00000000
49, 1, 1, 0.00000000
49, 2, 2, 0.00000000
49, 3, 3, 0.00000000
50, 1, 1, 0.00000000
50, 2, 2, 0.00000000
50, 3, 3, 0.00000000
388, 1, 1, 0.00000000
388, 2, 2, 0.00000000
388, 3, 3, 0.00000000
2449, 1, 1, 0.00000000
2449, 2, 2, 0.00000000
** ... 106 like lines cut
*CLOAD
1, 3, 142.85714286
9, 3, 142.85714286
10, 3, 142.85714286
195, 3, 142.85714286
196, 3, 142.85714286
385, 3, 142.85714286
397, 3, 142.85714286
398, 3, 142.85714286
451, 3, 142.85714286
452, 3, 142.85714286
2557, 3, 142.85714286
2560, 3, 142.85714286
3115, 3, 142.85714286
3118, 3, 142.85714286
*NODE PRINT, NSET=Nall
U
*NODE FILE
U
*EL FILE
S
*END STEP
