*HEADING
CalculiX Dynamic Job: ccx_modal
*INCLUDE, INPUT=ccx_modal_mesh.inp

*MATERIAL, NAME=MAT_PROP_1
*ELASTIC
200000.0, 0.29
*DENSITY
7.6e-09

*SHELL SECTION, ELSET=ELSET_PROP_1, MATERIAL=MAT_PROP_1
0.5

*STEP
*FREQUENCY
26
*NODE FILE
U
*END STEP
