*HEADING
CalculiX Dynamic Job: ccx_twisting_alt
*INCLUDE, INPUT=ccx_twisting_alt_mesh.inp

*MATERIAL, NAME=MAT_PROP_1
*ELASTIC
200000.0, 0.29
*DENSITY
7.6e-09

*SHELL SECTION, ELSET=ELSET_PROP_1, MATERIAL=MAT_PROP_1
0.5

*STEP
*STATIC
*BOUNDARY
2, 1, 1, 0.00000000
2, 2, 2, 0.00000000
2, 3, 3, 0.00000000
2, 4, 4, 0.00000000
2, 5, 5, 0.00000000
2, 6, 6, 0.00000000
47, 1, 1, 0.00000000
47, 2, 2, 0.00000000
47, 3, 3, 0.00000000
47, 4, 4, 0.00000000
47, 5, 5, 0.00000000
47, 6, 6, 0.00000000
48, 1, 1, 0.00000000
48, 2, 2, 0.00000000
48, 3, 3, 0.00000000
48, 4, 4, 0.00000000
48, 5, 5, 0.00000000
48, 6, 6, 0.00000000
49, 1, 1, 0.00000000
49, 2, 2, 0.00000000
** ... 148 like lines cut
*CLOAD
1, 3, 214.28571429
9, 3, 214.28571429
10, 3, 214.28571429
195, 3, 214.28571429
196, 3, 214.28571429
385, 3, 214.28571429
397, 3, 214.28571429
398, 3, 214.28571429
451, 3, 214.28571429
452, 3, 214.28571429
2557, 3, 214.28571429
2560, 3, 214.28571429
3115, 3, 214.28571429
3118, 3, 214.28571429
3, 3, -214.28571429
101, 3, -214.28571429
102, 3, -214.28571429
103, 3, -214.28571429
104, 3, -214.28571429
391, 3, -214.28571429
** ... 8 like lines cut
*NODE PRINT, NSET=Nall
U
*NODE FILE
U
*EL FILE
S
*END STEP
