*HEADING
CalculiX Dynamic Job: ccx_lifting_c1
*INCLUDE, INPUT=ccx_lifting_c1_mesh.inp

*MATERIAL, NAME=MAT_PROP_1
*ELASTIC
200000.0, 0.29
*DENSITY
7.6e-09

*SHELL SECTION, ELSET=ELSET_PROP_1, MATERIAL=MAT_PROP_1
0.5

*STEP
*STATIC
*BOUNDARY
1, 1, 1, 0.00000000
1, 2, 2, 0.00000000
1, 3, 3, 0.00000000
9, 1, 1, 0.00000000
9, 2, 2, 0.00000000
9, 3, 3, 0.00000000
10, 1, 1, 0.00000000
10, 2, 2, 0.00000000
10, 3, 3, 0.00000000
195, 1, 1, 0.00000000
195, 2, 2, 0.00000000
195, 3, 3, 0.00000000
196, 1, 1, 0.00000000
196, 2, 2, 0.00000000
196, 3, 3, 0.00000000
385, 1, 1, 0.00000000
385, 2, 2, 0.00000000
385, 3, 3, 0.00000000
397, 1, 1, 0.00000000
397, 2, 2, 0.00000000
** ... 106 like lines cut
*CLOAD
2, 3, 142.85714286
47, 3, 142.85714286
48, 3, 142.85714286
49, 3, 142.85714286
50, 3, 142.85714286
388, 3, 142.85714286
2449, 3, 142.85714286
2450, 3, 142.85714286
2503, 3, 142.85714286
2504, 3, 142.85714286
2671, 3, 142.85714286
2674, 3, 142.85714286
2677, 3, 142.85714286
2680, 3, 142.85714286
*NODE PRINT, NSET=Nall
U
*NODE FILE
U
*EL FILE
S
*END STEP
