*HEADING
CalculiX Dynamic Job: ccx_twisting
*INCLUDE, INPUT=ccx_twisting_mesh.inp

*MATERIAL, NAME=MAT_PROP_1
*ELASTIC
200000.0, 0.29
*DENSITY
7.6e-09

*SHELL SECTION, ELSET=ELSET_PROP_1, MATERIAL=MAT_PROP_1
0.5

*STEP
*STATIC
*BOUNDARY
1, 1, 1, 0.00000000
1, 2, 2, 0.00000000
1, 3, 3, 0.00000000
1, 4, 4, 0.00000000
1, 5, 5, 0.00000000
1, 6, 6, 0.00000000
9, 1, 1, 0.00000000
9, 2, 2, 0.00000000
9, 3, 3, 0.00000000
9, 4, 4, 0.00000000
9, 5, 5, 0.00000000
9, 6, 6, 0.00000000
10, 1, 1, 0.00000000
10, 2, 2, 0.00000000
10, 3, 3, 0.00000000
10, 4, 4, 0.00000000
10, 5, 5, 0.00000000
10, 6, 6, 0.00000000
195, 1, 1, 0.00000000
195, 2, 2, 0.00000000
** ... 148 like lines cut
*CLOAD
2, 3, 214.28571429
47, 3, 214.28571429
48, 3, 214.28571429
49, 3, 214.28571429
50, 3, 214.28571429
388, 3, 214.28571429
2449, 3, 214.28571429
2450, 3, 214.28571429
2503, 3, 214.28571429
2504, 3, 214.28571429
2671, 3, 214.28571429
2674, 3, 214.28571429
2677, 3, 214.28571429
2680, 3, 214.28571429
4, 3, -214.28571429
141, 3, -214.28571429
142, 3, -214.28571429
143, 3, -214.28571429
144, 3, -214.28571429
394, 3, -214.28571429
** ... 8 like lines cut
*NODE PRINT, NSET=Nall
U
*NODE FILE
U
*EL FILE
S
*END STEP
