*HEADING
CalculiX Dynamic Job: ccx_bending
*INCLUDE, INPUT=ccx_bending_mesh.inp

*MATERIAL, NAME=MAT_PROP_1
*ELASTIC
200000.0, 0.29
*DENSITY
7.6e-09

*SHELL SECTION, ELSET=ELSET_PROP_1, MATERIAL=MAT_PROP_1
0.5

*STEP
*STATIC
*BOUNDARY
5, 1, 1, 0.00000000
5, 2, 2, 0.00000000
5, 3, 3, 0.00000000
5, 4, 4, 0.00000000
5, 5, 5, 0.00000000
5, 6, 6, 0.00000000
6, 1, 1, 0.00000000
6, 2, 2, 0.00000000
6, 3, 3, 0.00000000
6, 4, 4, 0.00000000
6, 5, 5, 0.00000000
6, 6, 6, 0.00000000
7, 1, 1, 0.00000000
7, 2, 2, 0.00000000
7, 3, 3, 0.00000000
7, 4, 4, 0.00000000
7, 5, 5, 0.00000000
7, 6, 6, 0.00000000
8, 1, 1, 0.00000000
8, 2, 2, 0.00000000
** ... 2278 like lines cut
*CLOAD
1, 3, -0.19825535
2, 3, -0.19825535
3, 3, -0.19825535
4, 3, -0.19825535
9, 3, -0.19825535
10, 3, -0.19825535
11, 3, -0.19825535
12, 3, -0.19825535
13, 3, -0.19825535
14, 3, -0.19825535
15, 3, -0.19825535
16, 3, -0.19825535
17, 3, -0.19825535
18, 3, -0.19825535
19, 3, -0.19825535
20, 3, -0.19825535
21, 3, -0.19825535
22, 3, -0.19825535
23, 3, -0.19825535
24, 3, -0.19825535
** ... 2502 like lines cut
*NODE PRINT, NSET=Nall
U
*NODE FILE
U
*EL FILE
S
*END STEP
