*HEADING
CalculiX Dynamic Job: ccx_bending_yspan
*INCLUDE, INPUT=ccx_bending_yspan_mesh.inp

*MATERIAL, NAME=MAT_PROP_1
*ELASTIC
200000.0, 0.29
*DENSITY
7.6e-09

*SHELL SECTION, ELSET=ELSET_PROP_1, MATERIAL=MAT_PROP_1
0.5

*STEP
*STATIC
*BOUNDARY
5, 1, 1, 0.00000000
5, 2, 2, 0.00000000
5, 3, 3, 0.00000000
5, 4, 4, 0.00000000
5, 5, 5, 0.00000000
5, 6, 6, 0.00000000
8, 1, 1, 0.00000000
8, 2, 2, 0.00000000
8, 3, 3, 0.00000000
8, 4, 4, 0.00000000
8, 5, 5, 0.00000000
8, 6, 6, 0.00000000
331, 1, 1, 0.00000000
331, 2, 2, 0.00000000
331, 3, 3, 0.00000000
331, 4, 4, 0.00000000
331, 5, 5, 0.00000000
331, 6, 6, 0.00000000
332, 1, 1, 0.00000000
332, 2, 2, 0.00000000
** ... 652 like lines cut
*CLOAD
1229, 3, -5.00000000
1230, 3, -5.00000000
1231, 3, -5.00000000
1232, 3, -5.00000000
1233, 3, -5.00000000
1234, 3, -5.00000000
1235, 3, -5.00000000
1236, 3, -5.00000000
1237, 3, -5.00000000
1238, 3, -5.00000000
1283, 3, -5.00000000
1284, 3, -5.00000000
1285, 3, -5.00000000
1286, 3, -5.00000000
1287, 3, -5.00000000
1288, 3, -5.00000000
1289, 3, -5.00000000
1290, 3, -5.00000000
1291, 3, -5.00000000
1292, 3, -5.00000000
** ... 80 like lines cut
*NODE PRINT, NSET=Nall
U
*NODE FILE
U
*EL FILE
S
*END STEP
